OPT_V9/Results/My_campus_w_initial_sub_3_active_25_03_10_25/powerflow_results_t1.txt
Pandapower Network Debug Info
==================================================

BUS:
       vm_pu     va_degree      p_mw    q_mvar
0   1.006958  1.710800e-01 -0.006469 -0.004359
1   1.007801  2.652535e-01  0.001500  0.002000
2   1.011839  3.663422e-01 -0.003774 -0.000954
3   1.009423  2.805114e-01 -0.003729  0.000000
4   1.008023  2.306579e-01 -0.004377 -0.000453
5   1.005758  2.254508e-01 -0.002536 -0.000036
6   1.010014  3.795288e-01 -0.004594 -0.000444
7   1.003462  3.410325e-02 -0.003615 -0.001960
8   1.002319  2.642951e-02 -0.005310 -0.004510
9   0.999969  4.602928e-04  0.003949  0.003949
10  0.999963  4.516620e-04  0.005525  0.003525
11  0.999958  4.613961e-04  0.006116  0.005116
12  0.999999  9.126688e-04  0.003402 -0.000598
13  0.999982  9.656382e-04  0.006899  0.004899
14  0.999987  9.790985e-04  0.007013  0.006013
15  0.999989  4.410507e-04  0.000000  0.000000
16  0.999989  4.394846e-04  0.000000  0.000000
17  1.000000  9.770746e-04  0.000000  0.000000
18  1.000000  9.731692e-04  0.000000  0.000000
19  1.000000  0.000000e+00 -0.003241 -0.014357
20  1.000000  1.770056e-06  0.000000  0.000000
21  1.000000  0.000000e+00  0.002986 -0.007998
22  1.000000  8.592210e-07  0.000000  0.000000
--------------------------------------------------

LINE:
    p_from_mw   q_from_mvar   p_to_mw  q_to_mvar         pl_mw       ql_mvar  i_from_ka   i_to_ka      i_ka  vm_from_pu  va_from_degree  vm_to_pu  va_to_degree  loading_percent
0    0.003231  1.035732e-02 -0.003231  -0.010357  1.151384e-07  8.977529e-08   0.000418  0.000418  0.000418    1.000000    1.770056e-06  0.999989      0.000441         0.181565
1   -0.002996  3.998500e-03  0.002996  -0.003998  6.714315e-08  5.235262e-08   0.000192  0.000192  0.000192    1.000000    8.592210e-07  1.000000      0.000977         0.083610
2    0.015591  1.259061e-02 -0.015590  -0.012590  3.105518e-07  2.421423e-07   0.000771  0.000771  0.000771    0.999989    4.410507e-04  0.999969      0.000460         0.335365
3    0.003402 -5.975067e-04 -0.003402   0.000598  4.127040e-09  3.217921e-09   0.000133  0.000133  0.000133    1.000000    9.770746e-04  0.999999      0.000913         0.057811
4    0.013912  1.091223e-02 -0.013912  -0.010912  1.709430e-07  1.332871e-07   0.000681  0.000681  0.000681    1.000000    9.770746e-04  0.999987      0.000979         0.295893
5   -0.012370 -3.233300e-03  0.012446   0.003293  7.646045e-05  5.961747e-05   0.018455  0.018455  0.018455    0.999989    4.394846e-04  1.006958      0.171080         8.023738
6   -0.007073 -4.357548e-04  0.007112   0.000466  3.895774e-05  3.037599e-05   0.010228  0.010228  0.010228    1.000000    9.731692e-04  1.005758      0.225451         4.447016
7   -0.003603 -1.950776e-03  0.003615   0.001960  1.134330e-05  8.844560e-06   0.005914  0.005914  0.005914    1.000000    9.731692e-04  1.003462      0.034103         2.571427
8   -0.009644 -4.929692e-03  0.009664   0.004945  2.017043e-05  1.572722e-05   0.015633  0.015633  0.015633    1.000000    9.731692e-04  1.002319      0.026430         6.797103
9   -0.011642 -8.641577e-03  0.011642   0.008642  7.269840e-08  5.668414e-08   0.000558  0.000558  0.000558    0.999963    4.516620e-04  0.999969      0.000460         0.242637
10  -0.006116 -5.116453e-03  0.006116   0.005116  3.110191e-08  2.425067e-08   0.000307  0.000307  0.000307    0.999958    4.613961e-04  0.999963      0.000452         0.133453
11   0.006899  4.898675e-03 -0.006899  -0.004899  3.501260e-08  2.729990e-08   0.000326  0.000326  0.000326    0.999987    9.790985e-04  0.999982      0.000966         0.141595
12   0.002261 -1.056352e-03 -0.002257   0.001059  3.627945e-06  2.828768e-06   0.003574  0.003574  0.003574    1.007801    2.652535e-01  1.006958      0.171080         1.554027
13   0.003729  1.555077e-09 -0.003720   0.000007  9.112060e-06  7.104823e-06   0.005332  0.005332  0.005332    1.009423    2.805114e-01  1.006958      0.171080         2.318324
14   0.003774  9.540944e-04 -0.003761  -0.000944  1.339167e-05  1.044171e-05   0.005554  0.005554  0.005554    1.011839    3.663422e-01  1.007801      0.265254         2.414583
15  -0.004354 -4.351096e-04  0.004377   0.000453  2.318975e-05  1.808143e-05   0.006301  0.006301  0.006301    1.002319    2.642951e-02  1.008023      0.230658         2.739670
16   0.004594  4.443973e-04 -0.004576  -0.000430  1.818096e-05  1.417599e-05   0.006596  0.006596  0.006596    1.010014    3.795288e-01  1.005758      0.225451         2.867775
--------------------------------------------------

TRAFO:
    p_hv_mw  q_hv_mvar   p_lv_mw  q_lv_mvar    pl_mw  ql_mvar   i_hv_ka   i_lv_ka  vm_hv_pu  va_hv_degree  vm_lv_pu  va_lv_degree  loading_percent
0 -0.012360  -0.002233  0.012370   0.003233  0.00001    0.001  0.000483  0.018455  0.999989      0.000441  0.999989  4.394846e-04         0.127857
1 -0.020310  -0.006316  0.020320   0.007316  0.00001    0.001  0.000819  0.031173  1.000000      0.000977  1.000000  9.731692e-04         0.215974
2  0.003241   0.014357 -0.003231  -0.010357  0.00001    0.004  0.000121  0.000418  1.000000      0.000000  1.000000  1.770056e-06         0.036796
3 -0.002986   0.007998  0.002996  -0.003999  0.00001    0.004  0.000070  0.000192  1.000000      0.000000  1.000000  8.592210e-07         0.021344
--------------------------------------------------
